results/case14.log
components INFO: case_file = case14
components INFO: Solve the power flow

components INFO: Total P gens     272.393 MW
components INFO: Total P load     259.000 MW
components INFO: Total P losses    13.393 MW

components INFO: Total Q gens      82.438 Mvar
components INFO: Total Q shunts    21.185 Mvar
components INFO: Total Q load      73.500 Mvar
components INFO: Total Q losses    30.122 Mvar

components INFO: Read bus coordinates
components INFO: Calculate active power flow components
makeAPFC INFO: Starting ...
makeActiveFlows INFO: Swap branch orientation when both PF and PT are negative (3)
makeActiveFlows DEBUG: Before swap
    F_BUS  T_BUS      PF      PT
5       3      4 -23.286 -23.659
6       4      5 -61.158 -61.673
17     10     11  -3.785  -3.798
makeActiveFlows DEBUG: After swap
    F_BUS  T_BUS      PF      PT
5       4      3  23.659  23.286
6       5      4  61.673  61.158
17     11     10   3.798   3.785
makeAPFC DEBUG: =============== Sets A and B ===============
makeAPFC DEBUG: A[1] = {'E1': {'P': 156.88289052897025, 'side': 'PF', 'sign': 1}, 'E2': {'P': 75.51038182428782, 'side': 'PF', 'sign': 1}}
makeAPFC DEBUG: B[1] = {'G1': {'P': 232.39327235325806, 'side': 'PT', 'sign': 1}}

makeAPFC DEBUG: A[2] = {'E3': {'P': 73.23757923727564, 'side': 'PF', 'sign': 1}, 'E4': {'P': 56.131495938735895, 'side': 'PF', 'sign': 1}, 'E5': {'P': 41.5162150172045, 'side': 'PF', 'sign': 1}, 'L2': {'P': 21.7, 'side': 'PF', 'sign': 1}}
makeAPFC DEBUG: B[2] = {'E1': {'P': 152.58529019294986, 'side': 'PT', 'sign': 1}, 'G2': {'P': 40.0, 'side': 'PT', 'sign': 1}}

makeAPFC DEBUG: A[3] = {'L3': {'P': 94.2, 'side': 'PF', 'sign': 1}}
makeAPFC DEBUG: B[3] = {'E3': {'P': 70.91430990310043, 'side': 'PT', 'sign': 1}, 'E6': {'P': 23.285690095806068, 'side': 'PT', 'sign': 1}}

makeAPFC DEBUG: A[4] = {'E6': {'P': 23.659135052399193, 'side': 'PF', 'sign': 1}, 'E8': {'P': 28.074175915785464, 'side': 'PF', 'sign': 1}, 'E9': {'P': 16.07975758290435, 'side': 'PF', 'sign': 1}, 'L4': {'P': 47.8, 'side': 'PF', 'sign': 1}}
makeAPFC DEBUG: B[4] = {'E4': {'P': 54.45483810670495, 'side': 'PT', 'sign': 1}, 'E7': {'P': 61.158230445132325, 'side': 'PT', 'sign': 1}}

makeAPFC DEBUG: A[5] = {'E7': {'P': 61.672650038393165, 'side': 'PF', 'sign': 1}, 'E10': {'P': 44.08732085948627, 'side': 'PF', 'sign': 1}, 'L5': {'P': 7.6, 'side': 'PF', 'sign': 1}}
makeAPFC DEBUG: B[5] = {'E2': {'P': 72.74750923177135, 'side': 'PT', 'sign': 1}, 'E5': {'P': 40.61246166409698, 'side': 'PT', 'sign': 1}}

makeAPFC DEBUG: A[6] = {'E11': {'P': 7.353276982565585, 'side': 'PF', 'sign': 1}, 'E12': {'P': 7.786067015265544, 'side': 'PF', 'sign': 1}, 'E13': {'P': 17.747976862047583, 'side': 'PF', 'sign': 1}, 'L6': {'P': 11.2, 'side': 'PF', 'sign': 1}}
makeAPFC DEBUG: B[6] = {'E10': {'P': 44.08732085948627, 'side': 'PT', 'sign': 1}}

makeAPFC DEBUG: A[7] = {'E15': {'P': 28.074175916079064, 'side': 'PF', 'sign': 1}}
makeAPFC DEBUG: B[7] = {'E8': {'P': 28.07417591578545, 'side': 'PT', 'sign': 1}, 'E14': {'P': -0.0, 'side': 'PF', 'sign': -1}}

makeAPFC DEBUG: A[8] = {'E14': {'P': -0.0, 'side': 'PT', 'sign': -1}}
makeAPFC DEBUG: B[8] = {}

makeAPFC DEBUG: A[9] = {'E16': {'P': 5.227552469551603, 'side': 'PF', 'sign': 1}, 'E17': {'P': 9.426381029982975, 'side': 'PF', 'sign': 1}, 'L9': {'P': 29.5, 'side': 'PF', 'sign': 1}}
makeAPFC DEBUG: B[9] = {'E9': {'P': 16.07975758290435, 'side': 'PT', 'sign': 1}, 'E15': {'P': 28.074175916079064, 'side': 'PT', 'sign': 1}}

makeAPFC DEBUG: A[10] = {'L10': {'P': 9.0, 'side': 'PF', 'sign': 1}}
makeAPFC DEBUG: B[10] = {'E16': {'P': 5.214677618678156, 'side': 'PT', 'sign': 1}, 'E18': {'P': 3.7853223812853867, 'side': 'PT', 'sign': 1}}

makeAPFC DEBUG: A[11] = {'E18': {'P': 3.7979036590864363, 'side': 'PF', 'sign': 1}, 'L11': {'P': 3.5, 'side': 'PF', 'sign': 1}}
makeAPFC DEBUG: B[11] = {'E11': {'P': 7.297903659027817, 'side': 'PT', 'sign': 1}}

makeAPFC DEBUG: A[12] = {'E19': {'P': 1.6142577711058024, 'side': 'PF', 'sign': 1}, 'L12': {'P': 6.1, 'side': 'PF', 'sign': 1}}
makeAPFC DEBUG: B[12] = {'E12': {'P': 7.714257771111887, 'side': 'PT', 'sign': 1}}

makeAPFC DEBUG: A[13] = {'E20': {'P': 5.643850979832838, 'side': 'PF', 'sign': 1}, 'L13': {'P': 13.5, 'side': 'PF', 'sign': 1}}
makeAPFC DEBUG: B[13] = {'E13': {'P': 17.535891466934995, 'side': 'PT', 'sign': 1}, 'E19': {'P': 1.6079595127872652, 'side': 'PT', 'sign': 1}}

makeAPFC DEBUG: A[14] = {'L14': {'P': 14.9, 'side': 'PF', 'sign': 1}}
makeAPFC DEBUG: B[14] = {'E17': {'P': 9.310226938639751, 'side': 'PT', 'sign': 1}, 'E20': {'P': 5.589773061245825, 'side': 'PT', 'sign': 1}}

makeAPFC DEBUG: =======================================================
makeAPFC DEBUG: Initial known components: ['G1', 'G2']
makeAPFC DEBUG: ========== Start of iteration 1 ==========
makeAPFC DEBUG: Processing bus k = 1
makeAPFC DEBUG: B[1]: ['G1'], [232.39327235325806], ['PT'], [1], sum(P) = 232.39327235325806
makeAPFC DEBUG: A[1]: ['E1', 'E2'], [156.88289052897025, 75.51038182428782], ['PF', 'PF'], [1, 1], sum(P) = 232.39327235325806
makeAPFC DEBUG: outflow: E1_PF (1-2)
makeAPFC DEBUG: f = 156.88289052897025/232.39327235325806 = 0.675075009445603
makeAPFC DEBUG: inflow: G1.G1 = 232.39327235325806, CP = 156.88289052897025 --> component for: E1_PF.G1 (1-2)
makeAPFC DEBUG: P_other_side = 152.58529019294986 --> component for: E1_PT.G1
makeAPFC DEBUG: outflow: E2_PF (1-5)
makeAPFC DEBUG: f = 75.51038182428782/232.39327235325806 = 0.32492499055439716
makeAPFC DEBUG: inflow: G1.G1 = 232.39327235325806, CP = 75.51038182428782 --> component for: E2_PF.G1 (1-5)
makeAPFC DEBUG: P_other_side = 72.74750923177135 --> component for: E2_PT.G1
makeAPFC DEBUG: Processing bus k = 2
makeAPFC DEBUG: B[2]: ['E1', 'G2'], [152.58529019294986, 40.0], ['PT', 'PT'], [1, 1], sum(P) = 192.58529019294986
makeAPFC DEBUG: A[2]: ['E3', 'E4', 'E5', 'L2'], [73.23757923727564, 56.131495938735895, 41.5162150172045, 21.7], ['PF', 'PF', 'PF', 'PF'], [1, 1, 1, 1], sum(P) = 192.58529019321603
makeAPFC DEBUG: outflow: E3_PF (2-3)
makeAPFC DEBUG: f = 73.23757923727564/192.58529019294986 = 0.3802864650976169
makeAPFC DEBUG: inflow: E1.G1 = 152.58529019294986, CP = 58.026120633370965 --> component for: E3_PF.G1 (2-3)
makeAPFC DEBUG: P_other_side = 56.185394764867 --> component for: E3_PT.G1
makeAPFC DEBUG: inflow: G2.G2 = 40.0, CP = 15.211458603904674 --> component for: E3_PF.G2 (2-3)
makeAPFC DEBUG: P_other_side = 14.72891513823343 --> component for: E3_PT.G2
makeAPFC DEBUG: outflow: E4_PF (2-4)
makeAPFC DEBUG: f = 56.131495938735895/192.58529019294986 = 0.2914630493455556
makeAPFC DEBUG: inflow: E1.G1 = 152.58529019294986, CP = 44.47297396491367 --> component for: E4_PF.G1 (2-4)
makeAPFC DEBUG: P_other_side = 43.14455827128304 --> component for: E4_PT.G1
makeAPFC DEBUG: inflow: G2.G2 = 40.0, CP = 11.658521973822225 --> component for: E4_PF.G2 (2-4)
makeAPFC DEBUG: P_other_side = 11.31027983542191 --> component for: E4_PT.G2
makeAPFC DEBUG: outflow: E5_PF (2-5)
makeAPFC DEBUG: f = 41.5162150172045/192.58529019294986 = 0.21557313632629832
makeAPFC DEBUG: inflow: E1.G1 = 152.58529019294986, CP = 32.89328956415257 --> component for: E5_PF.G1 (2-5)
makeAPFC DEBUG: P_other_side = 32.1772459477964 --> component for: E5_PT.G1
makeAPFC DEBUG: inflow: G2.G2 = 40.0, CP = 8.622925453051932 --> component for: E5_PF.G2 (2-5)
makeAPFC DEBUG: P_other_side = 8.435215716300583 --> component for: E5_PT.G2
makeAPFC DEBUG: outflow: L2_PF (2-0)
makeAPFC DEBUG: f = 21.7/192.58529019294986 = 0.11267734923191133
makeAPFC DEBUG: inflow: E1.G1 = 152.58529019294986, CP = 17.192906030723545 --> component for: L2_PF.G1 (2-0)
makeAPFC DEBUG: P_other_side = 17.192906030723545 --> component for: L2_PT.G1
makeAPFC DEBUG: inflow: G2.G2 = 40.0, CP = 4.507093969276453 --> component for: L2_PF.G2 (2-0)
makeAPFC DEBUG: P_other_side = 4.507093969276453 --> component for: L2_PT.G2
makeAPFC DEBUG: Processing bus k = 3
makeAPFC DEBUG:     not all APFC known, skipping ...
makeAPFC DEBUG: Processing bus k = 4
makeAPFC DEBUG:     not all APFC known, skipping ...
makeAPFC DEBUG: Processing bus k = 5
makeAPFC DEBUG: B[5]: ['E2', 'E5'], [72.74750923177135, 40.61246166409698], ['PT', 'PT'], [1, 1], sum(P) = 113.35997089586833
makeAPFC DEBUG: A[5]: ['E7', 'E10', 'L5'], [61.672650038393165, 44.08732085948627, 7.6], ['PF', 'PF', 'PF'], [1, 1, 1], sum(P) = 113.35997089787944
makeAPFC DEBUG: outflow: E7_PF (5-4)
makeAPFC DEBUG: f = 61.672650038393165/113.35997089586833 = 0.544042571209243
makeAPFC DEBUG: inflow: E2.G1 = 72.74750923177135, CP = 39.57774197152103 --> component for: E7_PF.G1 (5-4)
makeAPFC DEBUG: P_other_side = 39.2476188794454 --> component for: E7_PT.G1
makeAPFC DEBUG: inflow: E5.G1 = 32.1772459477964, CP = 17.50579161987135 --> component for: E7_PF.G1 (5-4)
makeAPFC DEBUG: P_other_side = 17.359773535693076 --> component for: E7_PT.G1
makeAPFC DEBUG: inflow: E5.G2 = 8.435215716300583, CP = 4.5891164470007855 --> component for: E7_PF.G2 (5-4)
makeAPFC DEBUG: P_other_side = 4.550838029993844 --> component for: E7_PT.G2
makeAPFC DEBUG: outflow: E10_PF (5-6)
makeAPFC DEBUG: f = 44.08732085948627/113.35997089586833 = 0.3889143629013858
makeAPFC DEBUG: inflow: E2.G1 = 72.74750923177135, CP = 28.292551205537038 --> component for: E10_PF.G1 (5-6)
makeAPFC DEBUG: P_other_side = 28.292551205537038 --> component for: E10_PT.G1
makeAPFC DEBUG: inflow: E5.G1 = 32.1772459477964, CP = 12.514193107708435 --> component for: E10_PF.G1 (5-6)
makeAPFC DEBUG: P_other_side = 12.514193107708435 --> component for: E10_PT.G1
makeAPFC DEBUG: inflow: E5.G2 = 8.435215716300583, CP = 3.280576546240798 --> component for: E10_PF.G2 (5-6)
makeAPFC DEBUG: P_other_side = 3.280576546240798 --> component for: E10_PT.G2
makeAPFC DEBUG: outflow: L5_PF (5-0)
makeAPFC DEBUG: f = 7.6/113.35997089586833 = 0.06704306590711201
makeAPFC DEBUG: inflow: E2.G1 = 72.74750923177135, CP = 4.877216056003886 --> component for: L5_PF.G1 (5-0)
makeAPFC DEBUG: P_other_side = 4.877216056003886 --> component for: L5_PT.G1
makeAPFC DEBUG: inflow: E5.G1 = 32.1772459477964, CP = 2.157261220787467 --> component for: L5_PF.G1 (5-0)
makeAPFC DEBUG: P_other_side = 2.157261220787467 --> component for: L5_PT.G1
makeAPFC DEBUG: inflow: E5.G2 = 8.435215716300583, CP = 0.565522723208647 --> component for: L5_PF.G2 (5-0)
makeAPFC DEBUG: P_other_side = 0.565522723208647 --> component for: L5_PT.G2
makeAPFC DEBUG: Processing bus k = 6
makeAPFC DEBUG: B[6]: ['E10'], [44.08732085948627], ['PT'], [1], sum(P) = 44.08732085948627
makeAPFC DEBUG: A[6]: ['E11', 'E12', 'E13', 'L6'], [7.353276982565585, 7.786067015265544, 17.747976862047583, 11.2], ['PF', 'PF', 'PF', 'PF'], [1, 1, 1, 1], sum(P) = 44.087320859878716
makeAPFC DEBUG: outflow: E11_PF (6-11)
makeAPFC DEBUG: f = 7.353276982565585/44.08732085948627 = 0.1667889279550853
makeAPFC DEBUG: inflow: E10.G1 = 40.806744313245474, CP = 6.806113137343486 --> component for: E11_PF.G1 (6-11)
makeAPFC DEBUG: P_other_side = 6.754860191795217 --> component for: E11_PT.G1
makeAPFC DEBUG: inflow: E10.G2 = 3.280576546240798, CP = 0.5471638452220989 --> component for: E11_PF.G2 (6-11)
makeAPFC DEBUG: P_other_side = 0.5430434672326 --> component for: E11_PT.G2
makeAPFC DEBUG: outflow: E12_PF (6-12)
makeAPFC DEBUG: f = 7.786067015265544/44.08732085948627 = 0.17660558327145923
makeAPFC DEBUG: inflow: E10.G1 = 40.806744313245474, CP = 7.206698880850019 --> component for: E12_PF.G1 (6-12)
makeAPFC DEBUG: P_other_side = 7.1402330260786435 --> component for: E12_PT.G1
makeAPFC DEBUG: inflow: E10.G2 = 3.280576546240798, CP = 0.5793681344155254 --> component for: E12_PF.G2 (6-12)
makeAPFC DEBUG: P_other_side = 0.5740247450332451 --> component for: E12_PT.G2
makeAPFC DEBUG: outflow: E13_PF (6-13)
makeAPFC DEBUG: f = 17.747976862047583/44.08732085948627 = 0.40256419569275664
makeAPFC DEBUG: inflow: E10.G1 = 40.806744313245474, CP = 16.427334203301637 --> component for: E13_PF.G1 (6-13)
makeAPFC DEBUG: P_other_side = 16.231030270057055 --> component for: E13_PT.G1
makeAPFC DEBUG: inflow: E10.G2 = 3.280576546240798, CP = 1.3206426587459483 --> component for: E13_PF.G2 (6-13)
makeAPFC DEBUG: P_other_side = 1.3048611968779413 --> component for: E13_PT.G2
makeAPFC DEBUG: outflow: L6_PF (6-0)
makeAPFC DEBUG: f = 11.2/44.08732085948627 = 0.2540412930896003
makeAPFC DEBUG: inflow: E10.G1 = 40.806744313245474, CP = 10.366598092113573 --> component for: L6_PF.G1 (6-0)
makeAPFC DEBUG: P_other_side = 10.366598092113573 --> component for: L6_PT.G1
makeAPFC DEBUG: inflow: E10.G2 = 3.280576546240798, CP = 0.8334019078864271 --> component for: L6_PF.G2 (6-0)
makeAPFC DEBUG: P_other_side = 0.8334019078864271 --> component for: L6_PT.G2
makeAPFC DEBUG: Processing bus k = 7
makeAPFC DEBUG:     not all APFC known, skipping ...
makeAPFC DEBUG: Processing bus k = 8
makeAPFC DEBUG: B[8]: [], [], [], [], sum(P) = 0
makeAPFC DEBUG: A[8]: ['E14'], [-0.0], ['PT'], [-1], sum(P) = 0.0
makeAPFC DEBUG: outflow: E14_PT (7-8)
makeAPFC DEBUG: f = -0.0/0 = 0
makeAPFC DEBUG: Processing bus k = 9
makeAPFC DEBUG:     not all APFC known, skipping ...
makeAPFC DEBUG: Processing bus k = 10
makeAPFC DEBUG:     not all APFC known, skipping ...
makeAPFC DEBUG: Processing bus k = 11
makeAPFC DEBUG: B[11]: ['E11'], [7.297903659027817], ['PT'], [1], sum(P) = 7.297903659027817
makeAPFC DEBUG: A[11]: ['E18', 'L11'], [3.7979036590864363, 3.5], ['PF', 'PF'], [1, 1], sum(P) = 7.297903659086437
makeAPFC DEBUG: outflow: E18_PF (11-10)
makeAPFC DEBUG: f = 3.7979036590864363/7.297903659027817 = 0.5204102214186218
makeAPFC DEBUG: inflow: E11.G1 = 6.754860191795217, CP = 3.515298288063983 --> component for: E18_PF.G1 (11-10)
makeAPFC DEBUG: P_other_side = 3.5036531942739195 --> component for: E18_PT.G1
makeAPFC DEBUG: inflow: E11.G2 = 0.5430434672326, CP = 0.2826053710224535 --> component for: E18_PF.G2 (11-10)
makeAPFC DEBUG: P_other_side = 0.2816691870114674 --> component for: E18_PT.G2
makeAPFC DEBUG: outflow: L11_PF (11-0)
makeAPFC DEBUG: f = 3.5/7.297903659027817 = 0.47958977858941054
makeAPFC DEBUG: inflow: E11.G1 = 6.754860191795217, CP = 3.2395619037854915 --> component for: L11_PF.G1 (11-0)
makeAPFC DEBUG: P_other_side = 3.2395619037854915 --> component for: L11_PT.G1
makeAPFC DEBUG: inflow: E11.G2 = 0.5430434672326, CP = 0.2604380962145085 --> component for: L11_PF.G2 (11-0)
makeAPFC DEBUG: P_other_side = 0.2604380962145085 --> component for: L11_PT.G2
makeAPFC DEBUG: Processing bus k = 12
makeAPFC DEBUG: B[12]: ['E12'], [7.714257771111887], ['PT'], [1], sum(P) = 7.714257771111887
makeAPFC DEBUG: A[12]: ['E19', 'L12'], [1.6142577711058024, 6.1], ['PF', 'PF'], [1, 1], sum(P) = 7.714257771105802
makeAPFC DEBUG: outflow: E19_PF (12-13)
makeAPFC DEBUG: f = 1.6142577711058024/7.714257771111887 = 0.20925639497695095
makeAPFC DEBUG: inflow: E12.G1 = 7.1402330260786435, CP = 1.4941394223325823 --> component for: E19_PF.G1 (12-13)
makeAPFC DEBUG: P_other_side = 1.488309822987173 --> component for: E19_PT.G1
makeAPFC DEBUG: inflow: E12.G2 = 0.5740247450332451, CP = 0.1201183487732203 --> component for: E19_PF.G2 (12-13)
makeAPFC DEBUG: P_other_side = 0.11964968980009258 --> component for: E19_PT.G2
makeAPFC DEBUG: outflow: L12_PF (12-0)
makeAPFC DEBUG: f = 6.1/7.714257771111887 = 0.7907436050222603
makeAPFC DEBUG: inflow: E12.G1 = 7.1402330260786435, CP = 5.646093603740429 --> component for: L12_PF.G1 (12-0)
makeAPFC DEBUG: P_other_side = 5.646093603740429 --> component for: L12_PT.G1
makeAPFC DEBUG: inflow: E12.G2 = 0.5740247450332451, CP = 0.453906396259572 --> component for: L12_PF.G2 (12-0)
makeAPFC DEBUG: P_other_side = 0.453906396259572 --> component for: L12_PT.G2
makeAPFC DEBUG: Processing bus k = 13
makeAPFC DEBUG: B[13]: ['E13', 'E19'], [17.535891466934995, 1.6079595127872652], ['PT', 'PT'], [1, 1], sum(P) = 19.14385097972226
makeAPFC DEBUG: A[13]: ['E20', 'L13'], [5.643850979832838, 13.5], ['PF', 'PF'], [1, 1], sum(P) = 19.143850979832838
makeAPFC DEBUG: outflow: E20_PF (13-14)
makeAPFC DEBUG: f = 5.643850979832838/19.14385097972226 = 0.2948127305112735
makeAPFC DEBUG: inflow: E13.G1 = 16.231030270057055, CP = 4.785114352926653 --> component for: E20_PF.G1 (13-14)
makeAPFC DEBUG: P_other_side = 4.739264626324769 --> component for: E20_PT.G1
makeAPFC DEBUG: inflow: E19.G1 = 1.488309822987173, CP = 0.4387726827615986 --> component for: E20_PF.G1 (13-14)
makeAPFC DEBUG: P_other_side = 0.4345684765376261 --> component for: E20_PT.G1
makeAPFC DEBUG: inflow: E13.G2 = 1.3048611968779413, CP = 0.3846896923897943 --> component for: E20_PF.G2 (13-14)
makeAPFC DEBUG: P_other_side = 0.3810036953745198 --> component for: E20_PT.G2
makeAPFC DEBUG: inflow: E19.G2 = 0.11964968980009258, CP = 0.03527425175479216 --> component for: E20_PF.G2 (13-14)
makeAPFC DEBUG: P_other_side = 0.034936263008911075 --> component for: E20_PT.G2
makeAPFC DEBUG: outflow: L13_PF (13-0)
makeAPFC DEBUG: f = 13.5/19.14385097972226 = 0.7051872694945027
makeAPFC DEBUG: inflow: E13.G1 = 16.231030270057055, CP = 11.445915917224156 --> component for: L13_PF.G1 (13-0)
makeAPFC DEBUG: P_other_side = 11.445915917224156 --> component for: L13_PT.G1
makeAPFC DEBUG: inflow: E19.G1 = 1.488309822987173, CP = 1.049537140234171 --> component for: L13_PF.G1 (13-0)
makeAPFC DEBUG: P_other_side = 1.049537140234171 --> component for: L13_PT.G1
makeAPFC DEBUG: inflow: E13.G2 = 1.3048611968779413, CP = 0.9201715044956842 --> component for: L13_PF.G2 (13-0)
makeAPFC DEBUG: P_other_side = 0.9201715044956842 --> component for: L13_PT.G2
makeAPFC DEBUG: inflow: E19.G2 = 0.11964968980009258, CP = 0.08437543804599154 --> component for: L13_PF.G2 (13-0)
makeAPFC DEBUG: P_other_side = 0.08437543804599154 --> component for: L13_PT.G2
makeAPFC DEBUG: Processing bus k = 14
makeAPFC DEBUG:     not all APFC known, skipping ...
makeAPFC INFO: iter = 1, time = 0.004
makeAPFC DEBUG: ========== Start of iteration 2 ==========
makeAPFC DEBUG: Processing bus k = 3
makeAPFC DEBUG:     not all APFC known, skipping ...
makeAPFC DEBUG: Processing bus k = 4
makeAPFC DEBUG: B[4]: ['E4', 'E7'], [54.45483810670495, 61.158230445132325], ['PT', 'PT'], [1, 1], sum(P) = 115.61306855183727
makeAPFC DEBUG: A[4]: ['E6', 'E8', 'E9', 'L4'], [23.659135052399193, 28.074175915785464, 16.07975758290435, 47.8], ['PF', 'PF', 'PF', 'PF'], [1, 1, 1, 1], sum(P) = 115.613068551089
makeAPFC DEBUG: outflow: E6_PF (4-3)
makeAPFC DEBUG: f = 23.659135052399193/115.61306855183727 = 0.20464066345398643
makeAPFC DEBUG: inflow: E4.G1 = 43.14455827128304, CP = 8.82913102906454 --> component for: E6_PF.G1 (4-3)
makeAPFC DEBUG: P_other_side = 8.689768603236143 --> component for: E6_PT.G1
makeAPFC DEBUG: inflow: E7.G1 = 56.60739241513848, CP = 11.584174340234098 --> component for: E6_PF.G1 (4-3)
makeAPFC DEBUG: P_other_side = 11.401325243085163 --> component for: E6_PT.G1
makeAPFC DEBUG: inflow: E4.G2 = 11.31027983542191, CP = 2.3145431693709844 --> component for: E6_PF.G2 (4-3)
makeAPFC DEBUG: P_other_side = 2.278009523001228 --> component for: E6_PT.G2
makeAPFC DEBUG: inflow: E7.G2 = 4.550838029993844, CP = 0.9312865137295727 --> component for: E6_PF.G2 (4-3)
makeAPFC DEBUG: P_other_side = 0.9165867264835366 --> component for: E6_PT.G2
makeAPFC DEBUG: outflow: E8_PF (4-7)
makeAPFC DEBUG: f = 28.074175915785464/115.61306855183727 = 0.24282874131307988
makeAPFC DEBUG: inflow: E4.G1 = 43.14455827128304, CP = 10.47673877952449 --> component for: E8_PF.G1 (4-7)
makeAPFC DEBUG: P_other_side = 10.476738779524485 --> component for: E8_PT.G1
makeAPFC DEBUG: inflow: E7.G1 = 56.60739241513848, CP = 13.745901849183662 --> component for: E8_PF.G1 (4-7)
makeAPFC DEBUG: P_other_side = 13.745901849183655 --> component for: E8_PT.G1
makeAPFC DEBUG: inflow: E4.G2 = 11.31027983542191, CP = 2.746461016334211 --> component for: E8_PF.G2 (4-7)
makeAPFC DEBUG: P_other_side = 2.7464610163342096 --> component for: E8_PT.G2
makeAPFC DEBUG: inflow: E7.G2 = 4.550838029993844, CP = 1.1050742707431012 --> component for: E8_PF.G2 (4-7)
makeAPFC DEBUG: P_other_side = 1.1050742707431005 --> component for: E8_PT.G2
makeAPFC DEBUG: outflow: E9_PF (4-9)
makeAPFC DEBUG: f = 16.07975758290435/115.61306855183727 = 0.13908252574141036
makeAPFC DEBUG: inflow: E4.G1 = 43.14455827128304, CP = 6.000654136367503 --> component for: E9_PF.G1 (4-9)
makeAPFC DEBUG: P_other_side = 6.000654136367503 --> component for: E9_PT.G1
makeAPFC DEBUG: inflow: E7.G1 = 56.60739241513848, CP = 7.873099112732615 --> component for: E9_PF.G1 (4-9)
makeAPFC DEBUG: P_other_side = 7.873099112732615 --> component for: E9_PT.G1
makeAPFC DEBUG: inflow: E4.G2 = 11.31027983542191, CP = 1.5730622863526225 --> component for: E9_PF.G2 (4-9)
makeAPFC DEBUG: P_other_side = 1.5730622863526225 --> component for: E9_PT.G2
...

components INFO: Calculate reactive power flow components
makeRPFC INFO: Starting ...
makeReactiveFlows INFO: Swap branch orientation when both QF and QT are negative (6)
makeReactiveFlows DEBUG: Before swap
    F_BUS  T_BUS      QF      QT     QSF     QST    TAP
0       1      2 -20.404 -27.676   2.966   2.883  1.000
3       2      4  -1.550  -3.021   1.856   1.761  1.000
7       4      7  -9.681 -11.384 -11.391  12.121  0.978
8       4      9  -0.428  -1.732  -6.148   6.413  0.969
13      7      8 -17.163 -17.623   0.000   0.000  1.000
17     10     11  -1.615  -1.645   0.000   0.000  1.000
makeReactiveFlows DEBUG: After swap
    F_BUS  T_BUS      QF      QT     QSF     QST    TAP
0       2      1  27.676  20.404   2.883   2.966  1.000
3       4      2   3.021   1.550   1.761   1.856  1.000
7       7      4  11.384   9.681  12.121 -11.391  0.978
8       9      4   1.732   0.428   6.413  -6.148  0.969
13      8      7  17.623  17.163   0.000   0.000  1.000
17     11     10   1.645   1.615   0.000   0.000  1.000
makeReactiveFlows INFO: Loads with negative power converted to generators (1)
makeReactiveFlows DEBUG: Loads with negative power converted to generators
   F_BUS  T_BUS   QF TYPE  ID   QT  QF1  QT1  QSF  QST  TAP
3      0      4  3.9    G  L4  3.9  3.9  3.9    0    0    1
makeReactiveFlows INFO: Shunts with positive power converted to generators (1)
makeReactiveFlows DEBUG: Shunts with positive power converted to generators
   F_BUS  T_BUS      QF TYPE  ID      QT     QF1     QT1  QSF  QST  TAP
8      0      9  21.185    G  S9  21.185  21.185  21.185    0    0    1
makeReactiveFlows INFO: Generators with negative power converted to loads (1)
makeReactiveFlows DEBUG: Generators with negative power converted to loads
   F_BUS  T_BUS      QT TYPE  ID      QF     QF1     QT1  QSF  QST  TAP
0      1      0  16.549    L  G1  16.549  16.549  16.549    0    0    1
makeReactiveFlows INFO: Branches that are receiving reactive powers from both ends converted to loads (2)
makeReactiveFlows DEBUG: Branches that are receiving reactive powers from both ends converted to loads
   F_BUS  T_BUS     QF    QF1    QT1     QT    QSF    QST  TAP TYPE  ID
1      1      5  3.855  6.619 -4.786 -2.229  2.764  2.557  1.0    E  E2
2      2      3  3.560  5.952 -3.836 -1.602  2.392  2.234  1.0    E  E3
makeReactiveFlows DEBUG: Loads from branches that are receiving reactive powers from both ends
   F_BUS  T_BUS     QF     ID     QT    QF1    QT1  QSF  QST TYPE  TAP
0      1      0  3.855  E2_QF  3.855  3.855  3.855    0    0    L    1
1      5      0  2.229  E2_QT  2.229  2.229  2.229    0    0    L    1
2      2      0  3.560  E3_QF  3.560  3.560  3.560    0    0    L    1
3      3      0  1.602  E3_QT  1.602  1.602  1.602    0    0    L    1
makeReactiveFlows INFO: Transformers with negative QSF converted to loads (1)
makeReactiveFlows DEBUG: Transformers with negative QSF converted to loads
   F_BUS  QSF  T_BUS      QF      QT     QF1     QT1  QST TYPE      ID  TAP
9      5    0      0  32.287  32.287  32.287  32.287    0    L  E10.S5    1
makeReactiveFlows INFO: Transformers with negative QST converted to loads (2)
makeReactiveFlows DEBUG: Transformers with negative QST converted to loads
   F_BUS  QST  T_BUS      QF      QT     QF1     QT1  QSF TYPE     ID  TAP
7      4    0      0  11.391  11.391  11.391  11.391    0    L  E8.S4    1
8      4    0      0   6.148   6.148   6.148   6.148    0    L  E9.S4    1
makeRPFC DEBUG: =============== Sets C and D ===============
makeRPFC DEBUG: C[1] = {'G1': {'Q': 16.54930054208819, 'side': 'QF', 'sign': 1}, 'E2_QF': {'Q': 3.8549911413579587, 'side': 'QF', 'sign': 1}}
makeRPFC DEBUG: D[1] = {'E1': {'Q': 20.40429168344577, 'side': 'QT', 'sign': 1}}

makeRPFC DEBUG: C[2] = {'E1': {'Q': 27.676249726909496, 'side': 'QF', 'sign': 1}, 'E5': {'Q': 1.1709978571154842, 'side': 'QF', 'sign': 1}, 'L2': {'Q': 12.7, 'side': 'QF', 'sign': 1}, 'E3_QF': {'Q': 3.5602029508564033, 'side': 'QF', 'sign': 1}}
makeRPFC DEBUG: D[2] = {'E4': {'Q': 1.550350401353203, 'side': 'QT', 'sign': 1}, 'G2': {'Q': 43.55710013352808, 'side': 'QT', 'sign': 1}}

makeRPFC DEBUG: C[3] = {'E6': {'Q': 4.47311562217181, 'side': 'QF', 'sign': 1}, 'L3': {'Q': 19.0, 'side': 'QF', 'sign': 1}, 'E3_QT': {'Q': 1.6022328732376245, 'side': 'QF', 'sign': 1}}
makeRPFC DEBUG: D[3] = {'G3': {'Q': 25.075348495409514, 'side': 'QT', 'sign': 1}}

makeRPFC DEBUG: C[4] = {'E4': {'Q': 3.020687466979176, 'side': 'QF', 'sign': 1}, 'E7': {'Q': 15.823641939663634, 'side': 'QF', 'sign': 1}, 'E8.S4': {'Q': 11.391058279778498, 'side': 'QF', 'sign': 1}, 'E9.S4': {'Q': 6.147711019773163, 'side': 'QF', 'sign': 1}}
makeRPFC DEBUG: D[4] = {'E6': {'Q': 4.8356524969857295, 'side': 'QT', 'sign': 1}, 'E8': {'Q': 9.68106571494137, 'side': 'QT', 'sign': 1}, 'E9': {'Q': 0.4276111815579145, 'side': 'QT', 'sign': 1}, 'L4': {'Q': 3.9, 'side': 'QT', 'sign': 1}}

makeRPFC DEBUG: C[5] = {'E10': {'Q': 12.470679810981563, 'side': 'QF', 'sign': 1}, 'L5': {'Q': 1.6, 'side': 'QF', 'sign': 1}, 'E10.S5': {'Q': 32.28704872801048, 'side': 'QF', 'sign': 1}, 'E2_QT': {'Q': 2.2293587103770163, 'side': 'QF', 'sign': 1}}
makeRPFC DEBUG: D[5] = {'E5': {'Q': 2.0990339663447632, 'side': 'QT', 'sign': 1}, 'E7': {'Q': 14.201004555977164, 'side': 'QT', 'sign': 1}}

makeRPFC DEBUG: C[6] = {'E11': {'Q': 3.5604729705340787, 'side': 'QF', 'sign': 1}, 'E12': {'Q': 2.5034142369310968, 'side': 'QF', 'sign': 1}, 'E13': {'Q': 7.216575388251154, 'side': 'QF', 'sign': 1}, 'L6': {'Q': 7.5, 'side': 'QF', 'sign': 1}}
makeRPFC DEBUG: D[6] = {'E10': {'Q': 8.04951819111501, 'side': 'QT', 'sign': 1}, 'G6': {'Q': 12.730944404601484, 'side': 'QT', 'sign': 1}}

makeRPFC DEBUG: C[7] = {'E8': {'Q': 11.38427994065085, 'side': 'QF', 'sign': 1}, 'E15': {'Q': 5.7786905690428965, 'side': 'QF', 'sign': 1}}
makeRPFC DEBUG: D[7] = {'E14': {'Q': 17.162970509527153, 'side': 'QT', 'sign': 1}}

makeRPFC DEBUG: C[8] = {'E14': {'Q': 17.623451366399, 'side': 'QF', 'sign': 1}}
makeRPFC DEBUG: D[8] = {'G8': {'Q': 17.623451366399, 'side': 'QT', 'sign': 1}}

makeRPFC DEBUG: C[9] = {'E9': {'Q': 1.732322005940564, 'side': 'QF', 'sign': 1}, 'E16': {'Q': 4.219137798499122, 'side': 'QF', 'sign': 1}, 'E17': {'Q': 3.6100062385062497, 'side': 'QF', 'sign': 1}, 'L9': {'Q': 16.6, 'side': 'QF', 'sign': 1}}
makeRPFC DEBUG: D[9] = {'E15': {'Q': 4.976621868501657, 'side': 'QT', 'sign': 1}, 'S9': {'Q': 21.184844174407242, 'side': 'QT', 'sign': 1}}

makeRPFC DEBUG: C[10] = {'L10': {'Q': 5.8, 'side': 'QF', 'sign': 1}}
makeRPFC DEBUG: D[10] = {'E16': {'Q': 4.184937078637247, 'side': 'QT', 'sign': 1}, 'E18': {'Q': 1.6150629213625027, 'side': 'QT', 'sign': 1}}

makeRPFC DEBUG: C[11] = {'E18': {'Q': 1.6445143049974533, 'side': 'QF', 'sign': 1}, 'L11': {'Q': 1.8, 'side': 'QF', 'sign': 1}}
makeRPFC DEBUG: D[11] = {'E11': {'Q': 3.444514305008052, 'side': 'QT', 'sign': 1}}

makeRPFC DEBUG: C[12] = {'E19': {'Q': 0.7539591661810442, 'side': 'QF', 'sign': 1}, 'L12': {'Q': 1.6, 'side': 'QF', 'sign': 1}}
makeRPFC DEBUG: D[12] = {'E12': {'Q': 2.3539591661724395, 'side': 'QT', 'sign': 1}}

makeRPFC DEBUG: C[13] = {'E20': {'Q': 1.7471737807591419, 'side': 'QF', 'sign': 1}, 'L13': {'Q': 5.8, 'side': 'QF', 'sign': 1}}
makeRPFC DEBUG: D[13] = {'E13': {'Q': 6.798913038722549, 'side': 'QT', 'sign': 1}, 'E19': {'Q': 0.748260741988082, 'side': 'QT', 'sign': 1}}

makeRPFC DEBUG: C[14] = {'L14': {'Q': 5.0, 'side': 'QF', 'sign': 1}}
makeRPFC DEBUG: D[14] = {'E17': {'Q': 3.362930924074807, 'side': 'QT', 'sign': 1}, 'E20': {'Q': 1.63706907575328, 'side': 'QT', 'sign': 1}}

makeRPFC DEBUG: =======================================================
makeRPFC DEBUG: Initial known components: ['L4', 'G2', 'G3', 'G6', 'G8', 'S9']
makeRPFC DEBUG: ========== Start of iteration 1 ==========
makeRPFC DEBUG: Processing bus k = 1
makeRPFC DEBUG:     not all RPFC known, skipping ...
makeRPFC DEBUG: Processing bus k = 2
makeRPFC DEBUG:     not all RPFC known, skipping ...
makeRPFC DEBUG: Processing bus k = 3
makeRPFC DEBUG: D[3]: ['G3'], [25.075348495409514], ['QT'], [1], sum(Q) = 25.075348495409514
makeRPFC DEBUG: C[3]: ['E6', 'L3', 'E3_QT'], [4.47311562217181, 19.0, 1.6022328732376245], ['QF', 'QF', 'QF'], [1, 1, 1], sum(Q) = 25.075348495409436
makeRPFC DEBUG: outflow: E6_QF (3-4)
makeRPFC DEBUG: f = 4.47311562217181/25.075348495409514 = 0.1783869772733445
makeRPFC DEBUG: inflow: G3.G3 = 25.075348495409514, CQ = 4.47311562217181 --> component for: E6_QF.G3 (3-4)
makeRPFC DEBUG: CQ_other_side = 3.641366166874334 --> component for: E6_QT.G3
makeRPFC DEBUG: Components due to shunt elements of branch E6 (3-4)
makeRPFC DEBUG: QS = 0.652864 (side: QF), QS_other_side = 0.6628185385375219 (side: QT)
makeRPFC DEBUG: Q1 = 5.12597962217181 (side: QF), Q1_other_side = 4.172833958448208 (side: QT)
makeRPFC DEBUG: h = 4.172833958448208/5.12597962217181 = 0.8140559007295142
makeRPFC DEBUG: Qh = 0.8140559007295142 * 0.652864 + 0.6628185385375219 = 1.1942863301113955 --> component for: E6_QT.E6
makeRPFC DEBUG:     known components L4 (0-4)
makeRPFC DEBUG:     known components G2 (0-2)
makeRPFC DEBUG:     known components G3 (0-3)
makeRPFC DEBUG:     known components G6 (0-6)
makeRPFC DEBUG:     known components G8 (0-8)
makeRPFC DEBUG:     known components S9 (0-9)
makeRPFC DEBUG:     known components E6 (3-4)
makeRPFC DEBUG: outflow: L3_QF (3-0)
...